test/test_files/matlab_test_files/d_hvdc_mdl.m
Bus.con = [ ...
  1  16.5  1  0  4  1;
  2  230  1  0  2  1;
  3  230  1  0  2  1;
  4  230  1  0  2  1;
  5  230  1  0  2  1;
 ];

Line.con = [ ...
  5  3  100  230  60  0  0  0.032  0.161  0.306  0  0  0  0  0  1;
  4  3  100  230  60  0  0  0.032  0.161  0.306  0  0  0  0  0  1;
  3  2  100  230  60  0  0  0.01  0.085  0.176  0  0  0  0  0  1;
  1  2  100  16.5  60  0  0.07173913  0  0.0576  0  0  0  0  0  0  1;
 ];

SW.con = [ ...
  1  100  16.5  1.04  0  99  -99  1.1  0.9  0.8  1  1  1;
 ];

PQ.con = [ ...
  5  100  230  0.5  0.5  1.2  0.8  0  1;
 ];

Hvdc.con = [ ...
  4  5  100  230  230  60  300  0.3  0.1345  0.1257  1.25  1.25  20  25  0.0625  0.2  120  5  40  18  1  0.1  0.9  0  1  0.5  0.5  1.1  1;
 ];

Bus.names = {...
  'Bus 1'; 'Bus 4'; 'Bus 5'; 'Bus 7'; 'Bus 8'};
